<?xml version="1.0" encoding="UTF-8"?>

<!-- generated on 2025-09-19 00:25:31 by Eclipse SUMO netconvert Version 1.24.0
<netconvertConfiguration xmlns:xsi="http://www.w3.org/2001/XMLSchema-instance" xsi:noNamespaceSchemaLocation="http://sumo.dlr.de/xsd/netconvertConfiguration.xsd">

    <input>
        <node-files value="city.node.xml"/>
        <edge-files value="city.edg.xml"/>
    </input>

    <output>
        <output-file value="city.net.xml"/>
    </output>

</netconvertConfiguration>
-->

<net version="1.20" junctionCornerDetail="5" limitTurnSpeed="5.50" xmlns:xsi="http://www.w3.org/2001/XMLSchema-instance" xsi:noNamespaceSchemaLocation="http://sumo.dlr.de/xsd/net_file.xsd">

    <location netOffset="0.00,0.00" convBoundary="0.00,0.00,300.00,300.00" origBoundary="0.00,0.00,300.00,300.00" projParameter="!"/>

    <edge id=":H1_0" function="internal">
        <lane id=":H1_0_0" index="0" speed="8.33" length="12.73" shape="156.65,54.80 153.03,55.12 150.68,56.16 148.66,58.00 146.04,60.75"/>
        <lane id=":H1_0_1" index="1" speed="8.33" length="14.95" shape="156.65,51.60 153.60,52.03 150.44,53.32 147.16,55.47 143.78,58.49"/>
    </edge>
    <edge id=":H1_2" function="internal">
        <lane id=":H1_2_0" index="0" speed="8.33" length="17.82" shape="156.65,51.60 151.54,51.22 148.15,49.95 145.22,47.54 141.51,43.78"/>
    </edge>
    <edge id=":H1_3" function="internal">
        <lane id=":H1_3_0" index="0" speed="3.65" length="1.44" shape="156.65,51.60 155.45,50.80"/>
    </edge>
    <edge id=":H1_12" function="internal">
        <lane id=":H1_12_0" index="0" speed="3.65" length="3.23" shape="155.45,50.80 155.05,50.00 155.45,49.20 156.65,48.40"/>
    </edge>
    <edge id=":H1_4" function="internal">
        <lane id=":H1_4_0" index="0" speed="8.33" length="12.44" shape="146.04,39.25 148.93,41.85 151.67,43.71 154.24,44.83 156.65,45.20"/>
        <lane id=":H1_4_1" index="1" speed="8.33" length="14.95" shape="143.78,41.51 147.16,44.53 150.44,46.68 153.60,47.97 156.65,48.40"/>
    </edge>
    <edge id=":H1_6" function="internal">
        <lane id=":H1_6_0" index="0" speed="8.33" length="5.16" shape="143.78,41.51 146.88,45.65"/>
    </edge>
    <edge id=":H1_7" function="internal">
        <lane id=":H1_7_0" index="0" speed="3.65" length="1.44" shape="143.78,41.51 144.06,42.93"/>
    </edge>
    <edge id=":H1_13" function="internal">
        <lane id=":H1_13_0" index="0" speed="8.33" length="14.19" shape="146.88,45.65 146.96,45.76 148.02,50.00 146.96,54.24 143.78,58.49"/>
    </edge>
    <edge id=":H1_14" function="internal">
        <lane id=":H1_14_0" index="0" speed="3.65" length="3.23" shape="144.06,42.93 143.78,43.78 142.93,44.06 141.51,43.78"/>
    </edge>
    <edge id=":H1_8" function="internal">
        <lane id=":H1_8_0" index="0" speed="6.51" length="9.03" shape="139.25,53.96 140.74,51.98 141.23,50.00 140.74,48.02 139.25,46.04"/>
    </edge>
    <edge id=":H1_9" function="internal">
        <lane id=":H1_9_0" index="0" speed="8.33" length="19.96" shape="139.25,53.96 143.62,50.13 147.98,47.39 152.32,45.75 156.65,45.20"/>
        <lane id=":H1_9_1" index="1" speed="8.33" length="17.45" shape="141.51,56.22 145.39,52.80 149.21,50.36 152.96,48.89 156.65,48.40"/>
    </edge>
    <edge id=":H1_11" function="internal">
        <lane id=":H1_11_0" index="0" speed="3.65" length="1.44" shape="141.51,56.22 142.93,55.94"/>
    </edge>
    <edge id=":H1_15" function="internal">
        <lane id=":H1_15_0" index="0" speed="3.65" length="3.23" shape="142.93,55.94 143.78,56.22 144.06,57.07 143.78,58.49"/>
    </edge>
    <edge id=":H2_0" function="internal">
        <lane id=":H2_0_0" index="0" speed="8.33" length="39.11" shape="239.64,32.85 246.07,41.43 248.21,50.00 246.07,58.57 239.64,67.15"/>
        <lane id=":H2_0_1" index="1" speed="8.33" length="33.95" shape="237.38,35.11 242.96,42.56 244.82,50.00 242.96,57.44 237.38,64.89"/>
    </edge>
    <edge id=":H2_2" function="internal">
        <lane id=":H2_2_0" index="0" speed="8.14" length="6.17" shape="237.38,35.11 240.53,40.42"/>
    </edge>
    <edge id=":H2_3" function="internal">
        <lane id=":H2_3_0" index="0" speed="3.65" length="1.44" shape="237.38,35.11 237.66,36.53"/>
    </edge>
    <edge id=":H2_12" function="internal">
        <lane id=":H2_12_0" index="0" speed="8.14" length="17.40" shape="240.53,40.42 240.66,40.65 240.31,45.99 236.78,50.01 230.55,51.60"/>
    </edge>
    <edge id=":H2_13" function="internal">
        <lane id=":H2_13_0" index="0" speed="3.65" length="3.23" shape="237.66,36.53 237.38,37.38 236.53,37.66 235.11,37.38"/>
    </edge>
    <edge id=":H2_4" function="internal">
        <lane id=":H2_4_0" index="0" speed="5.47" length="9.74" shape="230.55,45.20 233.64,44.85 235.06,43.81 234.79,42.07 232.85,39.64"/>
        <lane id=":H2_4_1" index="1" speed="7.42" length="19.31" shape="230.55,48.40 236.68,47.71 239.48,45.64 238.96,42.20 235.11,37.38"/>
    </edge>
    <edge id=":H2_6" function="internal">
        <lane id=":H2_6_0" index="0" speed="8.14" length="23.57" shape="230.55,48.40 236.78,49.99 240.31,54.01 240.66,59.35 237.38,64.89"/>
    </edge>
    <edge id=":H2_7" function="internal">
        <lane id=":H2_7_0" index="0" speed="3.65" length="2.34" shape="230.55,48.40 231.75,49.20 232.15,50.00"/>
    </edge>
    <edge id=":H2_14" function="internal">
        <lane id=":H2_14_0" index="0" speed="3.65" length="2.34" shape="232.15,50.00 231.75,50.80 230.55,51.60"/>
    </edge>
    <edge id=":H2_8" function="internal">
        <lane id=":H2_8_0" index="0" speed="5.47" length="9.74" shape="232.85,60.36 234.79,57.93 235.06,56.19 233.64,55.15 230.55,54.80"/>
    </edge>
    <edge id=":H2_9" function="internal">
        <lane id=":H2_9_0" index="0" speed="8.33" length="23.63" shape="232.85,60.36 236.74,55.18 238.03,50.00 236.74,44.82 232.85,39.64"/>
        <lane id=":H2_9_1" index="1" speed="8.33" length="28.79" shape="235.11,62.62 239.85,56.31 241.43,50.00 239.85,43.69 235.11,37.38"/>
    </edge>
    <edge id=":H2_11" function="internal">
        <lane id=":H2_11_0" index="0" speed="3.65" length="1.30" shape="235.11,62.62 236.39,62.37"/>
    </edge>
    <edge id=":H2_15" function="internal">
        <lane id=":H2_15_0" index="0" speed="3.65" length="3.37" shape="236.39,62.37 236.53,62.34 237.38,62.62 237.66,63.47 237.38,64.89"/>
    </edge>
    <edge id=":J1_0" function="internal">
        <lane id=":J1_0_0" index="0" speed="12.92" length="38.71" shape="12.80,311.20 2.30,309.70 -5.20,305.20 -9.70,297.70 -11.20,287.20"/>
        <lane id=":J1_0_1" index="1" speed="12.06" length="33.55" shape="12.80,308.00 3.70,306.70 -2.80,302.80 -6.70,296.30 -8.00,287.20"/>
        <lane id=":J1_0_2" index="2" speed="11.12" length="28.38" shape="12.80,304.80 5.10,303.70 -0.40,300.40 -3.70,294.90 -4.80,287.20"/>
        <lane id=":J1_0_3" index="3" speed="10.10" length="23.22" shape="12.80,301.60 6.50,300.70 2.00,298.00 -0.70,293.50 -1.60,287.20"/>
    </edge>
    <edge id=":J1_4" function="internal">
        <lane id=":J1_4_0" index="0" speed="3.90" length="2.58" shape="11.20,287.20 11.30,287.90 11.60,288.40 12.10,288.70 12.80,288.80"/>
        <lane id=":J1_4_1" index="1" speed="6.08" length="7.74" shape="8.00,287.20 8.30,289.30 9.20,290.80 10.70,291.70 12.80,292.00"/>
        <lane id=":J1_4_2" index="2" speed="7.66" length="12.90" shape="4.80,287.20 5.30,290.70 6.80,293.20 9.30,294.70 12.80,295.20"/>
        <lane id=":J1_4_3" index="3" speed="8.96" length="18.06" shape="1.60,287.20 2.30,292.10 4.40,295.60 7.90,297.70 12.80,298.40"/>
    </edge>
    <edge id=":J10_0" function="internal">
        <lane id=":J10_0_0" index="0" speed="6.51" length="9.03" shape="88.80,116.80 88.45,114.35 87.40,112.60 85.65,111.55 83.20,111.20"/>
    </edge>
    <edge id=":J10_1" function="internal">
        <lane id=":J10_1_0" index="0" speed="13.89" length="42.68" shape="88.80,116.80 88.80,74.15"/>
        <lane id=":J10_1_1" index="1" speed="13.89" length="42.68" shape="92.00,116.80 92.00,74.15"/>
        <lane id=":J10_1_2" index="2" speed="13.89" length="42.68" shape="95.20,116.80 95.20,74.15"/>
        <lane id=":J10_1_3" index="3" speed="13.89" length="42.68" shape="95.20,116.80 98.40,74.15"/>
    </edge>
    <edge id=":J10_5" function="internal">
        <lane id=":J10_5_0" index="0" speed="11.11" length="16.37" shape="95.20,116.80 96.55,107.23 99.08,101.02"/>
        <lane id=":J10_5_1" index="1" speed="11.11" length="4.96" shape="98.40,116.80 99.11,111.89"/>
    </edge>
    <edge id=":J10_7" function="internal">
        <lane id=":J10_7_0" index="0" speed="12.69" length="3.45" shape="98.40,116.80 99.12,113.42"/>
    </edge>
    <edge id=":J10_8" function="internal">
        <lane id=":J10_8_0" index="0" speed="3.65" length="1.44" shape="98.40,116.80 99.20,115.60"/>
    </edge>
    <edge id=":J10_40" function="internal">
        <lane id=":J10_40_0" index="0" speed="11.11" length="30.46" shape="99.08,101.02 100.59,97.32 107.33,87.06 116.76,76.45"/>
        <lane id=":J10_40_1" index="0" speed="11.11" length="39.37" shape="99.11,111.89 99.69,107.87 103.56,98.55 110.00,88.83 119.02,78.71"/>
    </edge>
    <edge id=":J10_41" function="internal">
        <lane id=":J10_41_0" index="0" speed="12.69" length="33.81" shape="99.12,113.42 100.12,108.75 105.26,103.00 113.84,99.55 125.85,98.40"/>
    </edge>
    <edge id=":J10_42" function="internal">
        <lane id=":J10_42_0" index="0" speed="3.65" length="3.23" shape="99.20,115.60 100.00,115.20 100.80,115.60 101.60,116.80"/>
    </edge>
    <edge id=":J10_9" function="internal">
        <lane id=":J10_9_0" index="0" speed="8.71" length="16.99" shape="125.85,111.20 119.44,111.55 114.86,112.60 112.12,114.35 111.20,116.80"/>
    </edge>
    <edge id=":J10_10" function="internal">
        <lane id=":J10_10_0" index="0" speed="13.89" length="42.68" shape="125.85,111.20 83.20,111.20"/>
        <lane id=":J10_10_1" index="1" speed="13.89" length="42.68" shape="125.85,108.00 83.20,108.00"/>
        <lane id=":J10_10_2" index="2" speed="13.89" length="42.68" shape="125.85,104.80 83.20,104.80"/>
        <lane id=":J10_10_3" index="3" speed="13.89" length="42.68" shape="125.85,104.80 83.20,101.60"/>
    </edge>
    <edge id=":J10_14" function="internal">
        <lane id=":J10_14_0" index="0" speed="13.89" length="17.29" shape="125.85,104.80 112.44,102.88 109.23,100.96"/>
        <lane id=":J10_14_1" index="1" speed="13.80" length="5.01" shape="125.85,101.60 120.89,100.89"/>
    </edge>
    <edge id=":J10_16" function="internal">
        <lane id=":J10_16_0" index="0" speed="9.34" length="2.70" shape="125.85,101.60 123.25,100.87"/>
    </edge>
    <edge id=":J10_17" function="internal">
        <lane id=":J10_17_0" index="0" speed="3.65" length="1.44" shape="125.85,101.60 124.65,100.80"/>
    </edge>
    <edge id=":J10_43" function="internal">
        <lane id=":J10_43_0" index="0" speed="13.89" length="32.14" shape="109.23,100.96 102.86,97.14 97.12,87.56 95.20,74.15"/>
        <lane id=":J10_43_1" index="0" speed="13.80" length="39.26" shape="120.89,100.89 113.84,99.88 105.26,94.74 100.12,86.16 98.40,74.15"/>
    </edge>
    <edge id=":J10_44" function="internal">
        <lane id=":J10_44_0" index="0" speed="9.34" length="28.84" shape="123.25,100.87 117.87,99.34 113.94,93.68 114.27,86.25 119.02,78.71"/>
    </edge>
    <edge id=":J10_45" function="internal">
        <lane id=":J10_45_0" index="0" speed="3.65" length="3.23" shape="124.65,100.80 124.25,100.00 124.65,99.20 125.85,98.40"/>
    </edge>
    <edge id=":J10_18" function="internal">
        <lane id=":J10_18_0" index="0" speed="5.47" length="9.74" shape="123.55,83.24 121.61,85.67 121.34,87.41 122.76,88.45 125.85,88.80"/>
    </edge>
    <edge id=":J10_19" function="internal">
        <lane id=":J10_19_0" index="0" speed="11.11" length="37.94" shape="123.55,83.24 116.75,91.17 111.89,99.40 108.97,107.95 108.00,116.80"/>
        <lane id=":J10_19_1" index="1" speed="11.11" length="40.45" shape="121.29,80.98 114.07,89.40 108.92,98.18 105.83,107.31 104.80,116.80"/>
    </edge>
    <edge id=":J10_21" function="internal">
        <lane id=":J10_21_0" index="0" speed="11.11" length="45.80" shape="121.29,80.98 109.97,91.40 99.85,98.84 90.93,103.31 83.20,104.80"/>
    </edge>
    <edge id=":J10_22" function="internal">
        <lane id=":J10_22_0" index="0" speed="9.34" length="31.53" shape="121.29,80.98 113.75,85.73 106.32,86.06 100.66,82.13 98.40,74.15"/>
    </edge>
    <edge id=":J10_23" function="internal">
        <lane id=":J10_23_0" index="0" speed="3.65" length="2.34" shape="121.29,80.98 119.87,81.26 119.02,80.98"/>
    </edge>
    <edge id=":J10_46" function="internal">
        <lane id=":J10_46_0" index="0" speed="3.65" length="2.34" shape="119.02,80.98 118.74,80.13 119.02,78.71"/>
    </edge>
    <edge id=":J10_24" function="internal">
        <lane id=":J10_24_0" index="0" speed="5.47" length="9.74" shape="111.20,74.15 111.55,77.24 112.59,78.66 114.33,78.39 116.76,76.45"/>
    </edge>
    <edge id=":J10_25" function="internal">
        <lane id=":J10_25_0" index="0" speed="10.71" length="26.26" shape="111.20,74.15 112.12,81.96 114.86,87.54 119.44,90.88 125.85,92.00"/>
    </edge>
    <edge id=":J10_26" function="internal">
        <lane id=":J10_26_0" index="0" speed="13.89" length="42.65" shape="111.20,74.15 111.20,116.80"/>
        <lane id=":J10_26_1" index="1" speed="13.89" length="42.65" shape="108.00,74.15 108.00,116.80"/>
        <lane id=":J10_26_2" index="2" speed="13.89" length="42.65" shape="104.80,74.15 104.80,116.80"/>
        <lane id=":J10_26_3" index="3" speed="13.89" length="42.65" shape="101.60,74.15 101.60,116.80"/>
    </edge>
    <edge id=":J10_30" function="internal">
        <lane id=":J10_30_0" index="0" speed="12.69" length="13.41" shape="101.60,74.15 100.45,86.16 99.95,87.40"/>
    </edge>
    <edge id=":J10_31" function="internal">
        <lane id=":J10_31_0" index="0" speed="3.65" length="1.44" shape="101.60,74.15 100.80,75.35"/>
    </edge>
    <edge id=":J10_47" function="internal">
        <lane id=":J10_47_0" index="0" speed="12.69" length="23.85" shape="99.95,87.40 97.00,94.74 91.25,99.88 83.20,101.60"/>
    </edge>
    <edge id=":J10_48" function="internal">
        <lane id=":J10_48_0" index="0" speed="3.65" length="3.23" shape="100.80,75.35 100.00,75.75 99.20,75.35 98.40,74.15"/>
    </edge>
    <edge id=":J10_32" function="internal">
        <lane id=":J10_32_0" index="0" speed="8.71" length="16.99" shape="83.20,88.80 85.65,87.88 87.40,85.14 88.45,80.56 88.80,74.15"/>
    </edge>
    <edge id=":J10_33" function="internal">
        <lane id=":J10_33_0" index="0" speed="11.11" length="36.68" shape="83.20,88.80 93.25,88.03 102.20,85.71 110.03,81.85 116.76,76.45"/>
    </edge>
    <edge id=":J10_34" function="internal">
        <lane id=":J10_34_0" index="0" speed="13.89" length="42.65" shape="83.20,88.80 125.85,88.80"/>
        <lane id=":J10_34_1" index="1" speed="13.89" length="42.65" shape="83.20,92.00 125.85,92.00"/>
        <lane id=":J10_34_2" index="2" speed="13.89" length="42.65" shape="83.20,95.20 125.85,95.20"/>
        <lane id=":J10_34_3" index="3" speed="13.89" length="42.65" shape="83.20,98.40 125.85,98.40"/>
    </edge>
    <edge id=":J10_38" function="internal">
        <lane id=":J10_38_0" index="0" speed="11.36" length="8.31" shape="83.20,98.40 91.25,99.55 91.40,99.64"/>
    </edge>
    <edge id=":J10_39" function="internal">
        <lane id=":J10_39_0" index="0" speed="3.65" length="1.44" shape="83.20,98.40 84.40,99.20"/>
    </edge>
    <edge id=":J10_49" function="internal">
        <lane id=":J10_49_0" index="0" speed="11.36" length="21.37" shape="91.40,99.64 97.00,103.00 100.45,108.75 101.60,116.80"/>
    </edge>
    <edge id=":J10_50" function="internal">
        <lane id=":J10_50_0" index="0" speed="3.65" length="3.23" shape="84.40,99.20 84.80,100.00 84.40,100.80 83.20,101.60"/>
    </edge>
    <edge id=":J11_0" function="internal">
        <lane id=":J11_0_0" index="0" speed="6.51" length="9.03" shape="188.80,116.80 188.45,114.35 187.40,112.60 185.65,111.55 183.20,111.20"/>
    </edge>
    <edge id=":J11_1" function="internal">
        <lane id=":J11_1_0" index="0" speed="13.89" length="38.16" shape="188.80,116.80 188.80,78.67"/>
        <lane id=":J11_1_1" index="1" speed="13.89" length="38.16" shape="192.00,116.80 192.00,78.67"/>
        <lane id=":J11_1_2" index="2" speed="13.89" length="38.16" shape="195.20,116.80 195.20,78.67"/>
        <lane id=":J11_1_3" index="3" speed="13.89" length="38.16" shape="195.20,116.80 198.40,78.67"/>
    </edge>
    <edge id=":J11_5" function="internal">
        <lane id=":J11_5_0" index="0" speed="9.72" length="13.22" shape="195.20,116.80 196.69,109.07 199.08,104.29"/>
    </edge>
    <edge id=":J11_6" function="internal">
        <lane id=":J11_6_0" index="0" speed="11.11" length="16.37" shape="195.20,116.80 196.55,107.23 199.08,101.02"/>
        <lane id=":J11_6_1" index="1" speed="11.11" length="4.96" shape="198.40,116.80 199.11,111.89"/>
    </edge>
    <edge id=":J11_8" function="internal">
        <lane id=":J11_8_0" index="0" speed="12.69" length="3.45" shape="198.40,116.80 199.12,113.42"/>
    </edge>
    <edge id=":J11_9" function="internal">
        <lane id=":J11_9_0" index="0" speed="3.65" length="1.44" shape="198.40,116.80 199.20,115.60"/>
    </edge>
    <edge id=":J11_50" function="internal">
        <lane id=":J11_50_0" index="0" speed="9.72" length="32.57" shape="199.08,104.29 201.16,100.15 208.60,90.03 219.02,78.71"/>
    </edge>
    <edge id=":J11_51" function="internal">
        <lane id=":J11_51_0" index="0" speed="11.11" length="30.46" shape="199.08,101.02 200.59,97.32 207.33,87.06 216.76,76.45"/>
        <lane id=":J11_51_1" index="0" speed="11.11" length="39.37" shape="199.11,111.89 199.69,107.87 203.56,98.55 210.00,88.83 219.02,78.71"/>
    </edge>
    <edge id=":J11_52" function="internal">
        <lane id=":J11_52_0" index="0" speed="12.69" length="33.81" shape="199.12,113.42 200.12,108.75 205.26,103.00 213.84,99.55 225.85,98.40"/>
    </edge>
    <edge id=":J11_53" function="internal">
        <lane id=":J11_53_0" index="0" speed="3.65" length="3.23" shape="199.20,115.60 200.00,115.20 200.80,115.60 201.60,116.80"/>
    </edge>
    <edge id=":J11_10" function="internal">
        <lane id=":J11_10_0" index="0" speed="8.71" length="16.99" shape="225.85,111.20 219.44,111.55 214.86,112.60 212.12,114.35 211.20,116.80"/>
    </edge>
    <edge id=":J11_11" function="internal">
        <lane id=":J11_11_0" index="0" speed="13.89" length="42.68" shape="225.85,111.20 183.20,111.20"/>
        <lane id=":J11_11_1" index="1" speed="13.89" length="42.68" shape="225.85,108.00 183.20,108.00"/>
        <lane id=":J11_11_2" index="2" speed="13.89" length="42.68" shape="225.85,104.80 183.20,104.80"/>
        <lane id=":J11_11_3" index="3" speed="13.89" length="42.68" shape="225.85,104.80 183.20,101.60"/>
    </edge>
    <edge id=":J11_15" function="internal">
        <lane id=":J11_15_0" index="0" speed="13.89" length="18.39" shape="225.85,104.80 212.44,103.17 208.10,100.95"/>
    </edge>
    <edge id=":J11_16" function="internal">
        <lane id=":J11_16_0" index="0" speed="9.72" length="10.62" shape="225.85,104.80 216.97,102.21 216.24,101.06"/>
    </edge>
    <edge id=":J11_17" function="internal">
        <lane id=":J11_17_0" index="0" speed="8.72" length="1.71" shape="225.85,101.60 224.34,100.79"/>
    </edge>
    <edge id=":J11_18" function="internal">
        <lane id=":J11_18_0" index="0" speed="3.65" length="1.44" shape="225.85,101.60 224.65,100.80"/>
    </edge>
    <edge id=":J11_54" function="internal">
        <lane id=":J11_54_0" index="0" speed="13.89" length="27.46" shape="208.10,100.95 202.86,98.27 197.12,90.10 195.20,78.67"/>
    </edge>
    <edge id=":J11_55" function="internal">
        <lane id=":J11_55_0" index="0" speed="9.72" length="24.98" shape="216.24,101.06 212.85,95.73 213.51,87.26 219.02,78.71"/>
    </edge>
    <edge id=":J11_56" function="internal">
        <lane id=":J11_56_0" index="0" speed="8.72" length="25.60" shape="224.34,100.79 220.63,98.82 217.34,92.27 216.60,84.67 219.02,78.71"/>
    </edge>
    <edge id=":J11_57" function="internal">
        <lane id=":J11_57_0" index="0" speed="3.65" length="3.23" shape="224.65,100.80 224.25,100.00 224.65,99.20 225.85,98.40"/>
    </edge>
    <edge id=":J11_19" function="internal">
        <lane id=":J11_19_0" index="0" speed="5.47" length="9.74" shape="223.55,83.24 221.61,85.67 221.34,87.41 222.76,88.45 225.85,88.80"/>
    </edge>
    <edge id=":J11_20" function="internal">
        <lane id=":J11_20_0" index="0" speed="11.11" length="37.94" shape="223.55,83.24 216.75,91.17 211.89,99.40 208.97,107.95 208.00,116.80"/>
        <lane id=":J11_20_1" index="1" speed="11.11" length="40.45" shape="221.29,80.98 214.07,89.40 208.92,98.18 205.83,107.31 204.80,116.80"/>
    </edge>
    <edge id=":J11_22" function="internal">
        <lane id=":J11_22_0" index="0" speed="11.11" length="45.80" shape="221.29,80.98 209.97,91.40 199.85,98.84 190.93,103.31 183.20,104.80"/>
    </edge>
    <edge id=":J11_23" function="internal">
        <lane id=":J11_23_0" index="0" speed="9.75" length="34.49" shape="221.29,80.98 212.87,87.00 204.38,89.14 197.83,86.62 195.20,78.67"/>
    </edge>
    <edge id=":J11_24" function="internal">
        <lane id=":J11_24_0" index="0" speed="3.24" length="3.20" shape="221.29,80.98 219.02,78.71"/>
    </edge>
    <edge id=":J11_25" function="internal">
        <lane id=":J11_25_0" index="0" speed="3.65" length="4.67" shape="221.29,80.98 219.87,81.26 219.02,80.98 218.74,80.13 219.02,78.71"/>
    </edge>
    <edge id=":J11_26" function="internal">
        <lane id=":J11_26_0" index="0" speed="7.42" length="19.31" shape="221.29,80.98 217.44,85.80 216.92,89.24 219.72,91.31 225.85,92.00"/>
    </edge>
    <edge id=":J11_27" function="internal">
        <lane id=":J11_27_0" index="0" speed="9.72" length="40.45" shape="221.29,80.98 214.07,89.40 208.92,98.18 205.83,107.31 204.80,116.80"/>
    </edge>
    <edge id=":J11_28" function="internal">
        <lane id=":J11_28_0" index="0" speed="9.72" length="45.80" shape="221.29,80.98 209.97,91.40 199.85,98.84 190.93,103.31 183.20,104.80"/>
    </edge>
    <edge id=":J11_29" function="internal">
        <lane id=":J11_29_0" index="0" speed="8.56" length="26.24" shape="221.29,80.98 215.42,83.98 207.81,84.73 201.21,83.03 198.40,78.67"/>
    </edge>
    <edge id=":J11_30" function="internal">
        <lane id=":J11_30_0" index="0" speed="4.08" length="6.40" shape="221.29,80.98 216.76,76.45"/>
    </edge>
    <edge id=":J11_31" function="internal">
        <lane id=":J11_31_0" index="0" speed="3.65" length="1.44" shape="221.29,80.98 219.87,81.26"/>
    </edge>
    <edge id=":J11_58" function="internal">
        <lane id=":J11_58_0" index="0" speed="3.65" length="3.23" shape="219.87,81.26 219.02,80.98 218.74,80.13 219.02,78.71"/>
    </edge>
    <edge id=":J11_32" function="internal">
        <lane id=":J11_32_0" index="0" speed="5.97" length="11.90" shape="211.20,78.67 211.69,81.63 213.16,82.62 215.60,81.65 219.02,78.71"/>
    </edge>
    <edge id=":J11_33" function="internal">
        <lane id=":J11_33_0" index="0" speed="4.93" length="7.57" shape="211.20,78.67 211.55,79.79 212.59,79.79 214.33,78.68 216.76,76.45"/>
    </edge>
    <edge id=":J11_34" function="internal">
        <lane id=":J11_34_0" index="0" speed="11.00" length="27.73" shape="208.00,78.67 209.12,85.90 212.46,91.07 218.04,94.17 225.85,95.20"/>
    </edge>
    <edge id=":J11_35" function="internal">
        <lane id=":J11_35_0" index="0" speed="13.89" length="38.23" shape="208.00,78.67 211.20,116.80"/>
        <lane id=":J11_35_1" index="1" speed="13.89" length="38.23" shape="204.80,78.67 208.00,116.80"/>
        <lane id=":J11_35_2" index="2" speed="13.89" length="38.23" shape="201.60,78.67 204.80,116.80"/>
        <lane id=":J11_35_3" index="3" speed="13.89" length="38.23" shape="201.60,78.67 201.60,116.80"/>
    </edge>
    <edge id=":J11_39" function="internal">
        <lane id=":J11_39_0" index="0" speed="12.03" length="11.03" shape="201.60,78.67 200.45,88.70 200.05,89.54"/>
    </edge>
    <edge id=":J11_40" function="internal">
        <lane id=":J11_40_0" index="0" speed="3.65" length="1.44" shape="201.60,78.67 200.80,79.87"/>
    </edge>
    <edge id=":J11_59" function="internal">
        <lane id=":J11_59_0" index="0" speed="12.03" length="22.38" shape="200.05,89.54 197.00,95.87 191.25,100.17 183.20,101.60"/>
    </edge>
    <edge id=":J11_60" function="internal">
        <lane id=":J11_60_0" index="0" speed="3.65" length="3.23" shape="200.80,79.87 200.00,80.27 199.20,79.87 198.40,78.67"/>
    </edge>
    <edge id=":J11_41" function="internal">
        <lane id=":J11_41_0" index="0" speed="7.65" length="12.89" shape="183.20,88.80 185.65,88.17 187.40,86.27 188.45,83.10 188.80,78.67"/>
    </edge>
    <edge id=":J11_42" function="internal">
        <lane id=":J11_42_0" index="0" speed="9.72" length="37.81" shape="183.20,88.80 196.15,87.72 206.76,85.08 214.55,81.78 219.02,78.71"/>
    </edge>
    <edge id=":J11_43" function="internal">
        <lane id=":J11_43_0" index="0" speed="11.11" length="39.20" shape="183.20,92.00 193.89,91.17 203.42,88.68 211.80,84.53 219.02,78.71"/>
    </edge>
    <edge id=":J11_44" function="internal">
        <lane id=":J11_44_0" index="0" speed="13.89" length="42.74" shape="183.20,92.00 225.85,88.80"/>
        <lane id=":J11_44_1" index="1" speed="13.89" length="42.74" shape="183.20,95.20 225.85,92.00"/>
        <lane id=":J11_44_2" index="2" speed="13.89" length="42.74" shape="183.20,98.40 225.85,95.20"/>
        <lane id=":J11_44_3" index="3" speed="13.89" length="42.74" shape="183.20,98.40 225.85,98.40"/>
    </edge>
    <edge id=":J11_48" function="internal">
        <lane id=":J11_48_0" index="0" speed="11.36" length="8.31" shape="183.20,98.40 191.25,99.55 191.40,99.64"/>
    </edge>
    <edge id=":J11_49" function="internal">
        <lane id=":J11_49_0" index="0" speed="3.65" length="1.44" shape="183.20,98.40 184.40,99.20"/>
    </edge>
    <edge id=":J11_61" function="internal">
        <lane id=":J11_61_0" index="0" speed="11.36" length="21.37" shape="191.40,99.64 197.00,103.00 200.45,108.75 201.60,116.80"/>
    </edge>
    <edge id=":J11_62" function="internal">
        <lane id=":J11_62_0" index="0" speed="3.65" length="3.23" shape="184.40,99.20 184.80,100.00 184.40,100.80 183.20,101.60"/>
    </edge>
    <edge id=":J12_0" function="internal">
        <lane id=":J12_0_0" index="0" speed="6.51" length="9.03" shape="288.80,116.80 288.45,114.35 287.40,112.60 285.65,111.55 283.20,111.20"/>
        <lane id=":J12_0_1" index="1" speed="7.33" length="11.73" shape="288.80,116.80 288.45,112.95 287.40,110.20 285.65,108.55 283.20,108.00"/>
    </edge>
    <edge id=":J12_2" function="internal">
        <lane id=":J12_2_0" index="0" speed="13.89" length="33.60" shape="288.80,116.80 288.80,83.20"/>
        <lane id=":J12_2_1" index="1" speed="13.89" length="33.60" shape="292.00,116.80 292.00,83.20"/>
        <lane id=":J12_2_2" index="2" speed="13.89" length="33.60" shape="295.20,116.80 295.20,83.20"/>
        <lane id=":J12_2_3" index="3" speed="13.89" length="33.60" shape="298.40,116.80 298.40,83.20"/>
    </edge>
    <edge id=":J12_6" function="internal">
        <lane id=":J12_6_0" index="0" speed="3.65" length="1.44" shape="298.40,116.80 299.20,115.60"/>
    </edge>
    <edge id=":J12_20" function="internal">
        <lane id=":J12_20_0" index="0" speed="3.65" length="3.23" shape="299.20,115.60 300.00,115.20 300.80,115.60 301.60,116.80"/>
    </edge>
    <edge id=":J12_7" function="internal">
        <lane id=":J12_7_0" index="0" speed="13.89" length="33.60" shape="311.20,83.20 311.20,116.80"/>
        <lane id=":J12_7_1" index="1" speed="13.89" length="33.60" shape="308.00,83.20 308.00,116.80"/>
        <lane id=":J12_7_2" index="2" speed="13.89" length="33.60" shape="304.80,83.20 304.80,116.80"/>
        <lane id=":J12_7_3" index="3" speed="13.89" length="33.60" shape="301.60,83.20 301.60,116.80"/>
    </edge>
    <edge id=":J12_11" function="internal">
        <lane id=":J12_11_0" index="0" speed="11.84" length="5.85" shape="301.60,83.20 300.89,89.01"/>
        <lane id=":J12_11_1" index="1" speed="11.36" length="5.01" shape="301.60,83.20 300.89,88.16"/>
    </edge>
    <edge id=":J12_13" function="internal">
        <lane id=":J12_13_0" index="0" speed="3.65" length="1.44" shape="301.60,83.20 300.80,84.40"/>
    </edge>
    <edge id=":J12_21" function="internal">
        <lane id=":J12_21_0" index="0" speed="11.84" length="26.45" shape="300.89,89.01 300.45,92.65 297.00,99.40 291.25,103.45 283.20,104.80"/>
        <lane id=":J12_21_1" index="0" speed="11.36" length="24.66" shape="300.89,88.16 300.45,91.25 297.00,97.00 291.25,100.45 283.20,101.60"/>
    </edge>
    <edge id=":J12_22" function="internal">
        <lane id=":J12_22_0" index="0" speed="3.65" length="3.23" shape="300.80,84.40 300.00,84.80 299.20,84.40 298.40,83.20"/>
    </edge>
    <edge id=":J12_14" function="internal">
        <lane id=":J12_14_0" index="0" speed="6.51" length="9.03" shape="283.20,88.80 285.65,88.45 287.40,87.40 288.45,85.65 288.80,83.20"/>
        <lane id=":J12_14_1" index="1" speed="8.00" length="14.19" shape="283.20,92.00 287.05,91.45 289.80,89.80 291.45,87.05 292.00,83.20"/>
        <lane id=":J12_14_2" index="2" speed="9.26" length="19.35" shape="283.20,95.20 288.45,94.45 292.20,92.20 294.45,88.45 295.20,83.20"/>
    </edge>
    <edge id=":J12_17" function="internal">
        <lane id=":J12_17_0" index="0" speed="11.84" length="32.30" shape="283.20,98.40 292.65,99.55 299.40,103.00 303.45,108.75 304.80,116.80"/>
        <lane id=":J12_17_1" index="1" speed="11.36" length="29.67" shape="283.20,98.40 291.25,99.55 297.00,103.00 300.45,108.75 301.60,116.80"/>
    </edge>
    <edge id=":J12_19" function="internal">