<?xml version="1.0" encoding="UTF-8"?>
<additional>
	<poi id="hospital" x="105" y="50" color="0,1,0"/>
</additional>