<?xml version="1.0" encoding="UTF-8"?>

<!-- generated on 2025-09-17 22:40:04 by Eclipse SUMO netconvert Version 1.24.0
<netconvertConfiguration xmlns:xsi="http://www.w3.org/2001/XMLSchema-instance" xsi:noNamespaceSchemaLocation="http://sumo.dlr.de/xsd/netconvertConfiguration.xsd">

    <input>
        <node-files value="city.nod.xml"/>
        <edge-files value="city.edg.xml"/>
    </input>

    <output>
        <output-file value="city.net.xml"/>
    </output>

    <processing>
        <lefthand value="true"/>
    </processing>

</netconvertConfiguration>
-->

<net version="1.20" junctionCornerDetail="5" lefthand="true" limitTurnSpeed="5.50" xmlns:xsi="http://www.w3.org/2001/XMLSchema-instance" xsi:noNamespaceSchemaLocation="http://sumo.dlr.de/xsd/net_file.xsd">

    <location netOffset="0.00,-0.00" convBoundary="0.00,-0.00,200.00,100.00" origBoundary="0.00,0.00,200.00,100.00" projParameter="!"/>

    <edge id=":J1_0" function="internal">
        <lane id=":J1_0_0" index="0" speed="8.33" length="18.06" shape="-4.80,93.60 -4.10,98.50 -2.00,102.00 1.50,104.10 6.40,104.80"/>
        <lane id=":J1_0_1" index="1" speed="7.66" length="12.90" shape="-1.60,93.60 -1.10,97.10 0.40,99.60 2.90,101.10 6.40,101.60"/>
    </edge>
    <edge id=":J1_2" function="internal">
        <lane id=":J1_2_0" index="0" speed="3.90" length="2.58" shape="6.40,95.20 5.70,95.10 5.20,94.80 4.90,94.30 4.80,93.60"/>
        <lane id=":J1_2_1" index="1" speed="6.08" length="7.74" shape="6.40,98.40 4.30,98.10 2.80,97.20 1.90,95.70 1.60,93.60"/>
    </edge>
    <edge id=":J2_0" function="internal">
        <lane id=":J2_0_0" index="0" speed="6.51" length="9.03" shape="95.20,89.60 94.85,92.05 93.80,93.80 92.05,94.85 89.60,95.20"/>
        <lane id=":J2_0_1" index="1" speed="8.00" length="14.19" shape="98.40,89.60 97.85,93.45 96.20,96.20 93.45,97.85 89.60,98.40"/>
    </edge>
    <edge id=":J2_2" function="internal">
        <lane id=":J2_2_0" index="0" speed="8.33" length="19.35" shape="98.40,89.60 99.15,94.85 101.40,98.60 105.15,100.85 110.40,101.60"/>
    </edge>
    <edge id=":J2_3" function="internal">
        <lane id=":J2_3_0" index="0" speed="3.65" length="2.34" shape="98.40,89.60 99.20,90.80 100.00,91.20"/>
    </edge>
    <edge id=":J2_12" function="internal">
        <lane id=":J2_12_0" index="0" speed="3.65" length="2.34" shape="100.00,91.20 100.80,90.80 101.60,89.60"/>
    </edge>
    <edge id=":J2_4" function="internal">
        <lane id=":J2_4_0" index="0" speed="6.51" length="9.03" shape="110.40,95.20 107.95,94.85 106.20,93.80 105.15,92.05 104.80,89.60"/>
    </edge>
    <edge id=":J2_5" function="internal">
        <lane id=":J2_5_0" index="0" speed="8.33" length="20.80" shape="110.40,95.20 89.60,95.20"/>
        <lane id=":J2_5_1" index="1" speed="8.33" length="20.80" shape="110.40,98.40 89.60,98.40"/>
    </edge>
    <edge id=":J2_7" function="internal">
        <lane id=":J2_7_0" index="0" speed="3.65" length="1.44" shape="110.40,98.40 109.20,99.20"/>
    </edge>
    <edge id=":J2_13" function="internal">
        <lane id=":J2_13_0" index="0" speed="3.65" length="3.23" shape="109.20,99.20 108.80,100.00 109.20,100.80 110.40,101.60"/>
    </edge>
    <edge id=":J2_8" function="internal">
        <lane id=":J2_8_0" index="0" speed="8.33" length="20.80" shape="89.60,104.80 110.40,104.80"/>
        <lane id=":J2_8_1" index="1" speed="8.33" length="20.80" shape="89.60,101.60 110.40,101.60"/>
    </edge>
    <edge id=":J2_10" function="internal">
        <lane id=":J2_10_0" index="0" speed="8.33" length="5.01" shape="89.60,101.60 94.56,100.89"/>
    </edge>
    <edge id=":J2_11" function="internal">
        <lane id=":J2_11_0" index="0" speed="3.65" length="1.44" shape="89.60,101.60 90.80,100.80"/>
    </edge>
    <edge id=":J2_14" function="internal">
        <lane id=":J2_14_0" index="0" speed="8.33" length="14.34" shape="94.56,100.89 94.85,100.85 98.60,98.60 100.85,94.85 101.60,89.60"/>
    </edge>
    <edge id=":J2_15" function="internal">
        <lane id=":J2_15_0" index="0" speed="3.65" length="3.23" shape="90.80,100.80 91.20,100.00 90.80,99.20 89.60,98.40"/>
    </edge>
    <edge id=":J3_0" function="internal">
        <lane id=":J3_0_0" index="0" speed="3.90" length="2.58" shape="195.20,93.60 195.10,94.30 194.80,94.80 194.30,95.10 193.60,95.20"/>
        <lane id=":J3_0_1" index="1" speed="6.08" length="7.74" shape="198.40,93.60 198.10,95.70 197.20,97.20 195.70,98.10 193.60,98.40"/>
    </edge>
    <edge id=":J3_2" function="internal">
        <lane id=":J3_2_0" index="0" speed="8.33" length="18.06" shape="193.60,104.80 198.50,104.10 202.00,102.00 204.10,98.50 204.80,93.60"/>
        <lane id=":J3_2_1" index="1" speed="7.66" length="12.90" shape="193.60,101.60 197.10,101.10 199.60,99.60 201.10,97.10 201.60,93.60"/>
    </edge>
    <edge id=":J4_0" function="internal">
        <lane id=":J4_0_0" index="0" speed="8.33" length="18.06" shape="6.40,-4.80 1.50,-4.10 -2.00,-2.00 -4.10,1.50 -4.80,6.40"/>
        <lane id=":J4_0_1" index="1" speed="7.66" length="12.90" shape="6.40,-1.60 2.90,-1.10 0.40,0.40 -1.10,2.90 -1.60,6.40"/>
    </edge>
    <edge id=":J4_2" function="internal">
        <lane id=":J4_2_0" index="0" speed="3.90" length="2.58" shape="4.80,6.40 4.90,5.70 5.20,5.20 5.70,4.90 6.40,4.80"/>
        <lane id=":J4_2_1" index="1" speed="6.08" length="7.74" shape="1.60,6.40 1.90,4.30 2.80,2.80 4.30,1.90 6.40,1.60"/>
    </edge>
    <edge id=":J5_0" function="internal">
        <lane id=":J5_0_0" index="0" speed="8.33" length="20.80" shape="110.40,-4.80 89.60,-4.80"/>
        <lane id=":J5_0_1" index="1" speed="8.33" length="20.80" shape="110.40,-1.60 89.60,-1.60"/>
    </edge>
    <edge id=":J5_2" function="internal">
        <lane id=":J5_2_0" index="0" speed="8.33" length="5.01" shape="110.40,-1.60 105.44,-0.89"/>
    </edge>
    <edge id=":J5_3" function="internal">
        <lane id=":J5_3_0" index="0" speed="3.65" length="1.44" shape="110.40,-1.60 109.20,-0.80"/>
    </edge>
    <edge id=":J5_12" function="internal">
        <lane id=":J5_12_0" index="0" speed="8.33" length="14.34" shape="105.44,-0.89 105.15,-0.85 101.40,1.40 99.15,5.15 98.40,10.40"/>
    </edge>
    <edge id=":J5_13" function="internal">
        <lane id=":J5_13_0" index="0" speed="3.65" length="3.23" shape="109.20,-0.80 108.80,-0.00 109.20,0.80 110.40,1.60"/>
    </edge>
    <edge id=":J5_4" function="internal">
        <lane id=":J5_4_0" index="0" speed="6.51" length="9.03" shape="104.80,10.40 105.15,7.95 106.20,6.20 107.95,5.15 110.40,4.80"/>
        <lane id=":J5_4_1" index="1" speed="8.00" length="14.19" shape="101.60,10.40 102.15,6.55 103.80,3.80 106.55,2.15 110.40,1.60"/>
    </edge>
    <edge id=":J5_6" function="internal">
        <lane id=":J5_6_0" index="0" speed="8.33" length="19.35" shape="101.60,10.40 100.85,5.15 98.60,1.40 94.85,-0.85 89.60,-1.60"/>
    </edge>
    <edge id=":J5_7" function="internal">
        <lane id=":J5_7_0" index="0" speed="3.65" length="2.34" shape="101.60,10.40 100.80,9.20 100.00,8.80"/>
    </edge>
    <edge id=":J5_14" function="internal">
        <lane id=":J5_14_0" index="0" speed="3.65" length="2.34" shape="100.00,8.80 99.20,9.20 98.40,10.40"/>
    </edge>
    <edge id=":J5_8" function="internal">
        <lane id=":J5_8_0" index="0" speed="6.51" length="9.03" shape="89.60,4.80 92.05,5.15 93.80,6.20 94.85,7.95 95.20,10.40"/>
    </edge>
    <edge id=":J5_9" function="internal">
        <lane id=":J5_9_0" index="0" speed="8.33" length="20.80" shape="89.60,4.80 110.40,4.80"/>
        <lane id=":J5_9_1" index="1" speed="8.33" length="20.80" shape="89.60,1.60 110.40,1.60"/>
    </edge>
    <edge id=":J5_11" function="internal">
        <lane id=":J5_11_0" index="0" speed="3.65" length="1.44" shape="89.60,1.60 90.80,0.80"/>
    </edge>
    <edge id=":J5_15" function="internal">
        <lane id=":J5_15_0" index="0" speed="3.65" length="3.23" shape="90.80,0.80 91.20,-0.00 90.80,-0.80 89.60,-1.60"/>
    </edge>
    <edge id=":J6_0" function="internal">
        <lane id=":J6_0_0" index="0" speed="8.33" length="18.06" shape="204.80,6.40 204.10,1.50 202.00,-2.00 198.50,-4.10 193.60,-4.80"/>
        <lane id=":J6_0_1" index="1" speed="7.66" length="12.90" shape="201.60,6.40 201.10,2.90 199.60,0.40 197.10,-1.10 193.60,-1.60"/>
    </edge>
    <edge id=":J6_2" function="internal">
        <lane id=":J6_2_0" index="0" speed="3.90" length="2.58" shape="193.60,4.80 194.30,4.90 194.80,5.20 195.10,5.70 195.20,6.40"/>
        <lane id=":J6_2_1" index="1" speed="6.08" length="7.74" shape="193.60,1.60 195.70,1.90 197.20,2.80 198.10,4.30 198.40,6.40"/>
    </edge>

    <edge id="J1-J2" from="J1" to="J2" priority="1">
        <lane id="J1-J2_0" index="0" speed="8.33" length="83.20" shape="6.40,104.80 89.60,104.80"/>
        <lane id="J1-J2_1" index="1" speed="8.33" length="83.20" shape="6.40,101.60 89.60,101.60"/>
    </edge>
    <edge id="J1-J4" from="J1" to="J4" priority="1">
        <lane id="J1-J4_0" index="0" speed="8.33" length="87.20" shape="4.80,93.60 4.80,6.40"/>
        <lane id="J1-J4_1" index="1" speed="8.33" length="87.20" shape="1.60,93.60 1.60,6.40"/>
    </edge>
    <edge id="J2-J1" from="J2" to="J1" priority="1">
        <lane id="J2-J1_0" index="0" speed="8.33" length="83.20" shape="89.60,95.20 6.40,95.20"/>
        <lane id="J2-J1_1" index="1" speed="8.33" length="83.20" shape="89.60,98.40 6.40,98.40"/>
    </edge>
    <edge id="J2-J3" from="J2" to="J3" priority="1">
        <lane id="J2-J3_0" index="0" speed="8.33" length="83.20" shape="110.40,104.80 193.60,104.80"/>
        <lane id="J2-J3_1" index="1" speed="8.33" length="83.20" shape="110.40,101.60 193.60,101.60"/>
    </edge>
    <edge id="J2-J5" from="J2" to="J5" priority="1">
        <lane id="J2-J5_0" index="0" speed="8.33" length="79.20" shape="104.80,89.60 104.80,10.40"/>
        <lane id="J2-J5_1" index="1" speed="8.33" length="79.20" shape="101.60,89.60 101.60,10.40"/>
    </edge>
    <edge id="J3-J2" from="J3" to="J2" priority="1">
        <lane id="J3-J2_0" index="0" speed="8.33" length="83.20" shape="193.60,95.20 110.40,95.20"/>
        <lane id="J3-J2_1" index="1" speed="8.33" length="83.20" shape="193.60,98.40 110.40,98.40"/>
    </edge>
    <edge id="J3-J6" from="J3" to="J6" priority="1">
        <lane id="J3-J6_0" index="0" speed="8.33" length="87.20" shape="204.80,93.60 204.80,6.40"/>
        <lane id="J3-J6_1" index="1" speed="8.33" length="87.20" shape="201.60,93.60 201.60,6.40"/>
    </edge>
    <edge id="J4-J1" from="J4" to="J1" priority="1">
        <lane id="J4-J1_0" index="0" speed="8.33" length="87.20" shape="-4.80,6.40 -4.80,93.60"/>
        <lane id="J4-J1_1" index="1" speed="8.33" length="87.20" shape="-1.60,6.40 -1.60,93.60"/>
    </edge>
    <edge id="J4-J5" from="J4" to="J5" priority="1">
        <lane id="J4-J5_0" index="0" speed="8.33" length="83.20" shape="6.40,4.80 89.60,4.80"/>
        <lane id="J4-J5_1" index="1" speed="8.33" length="83.20" shape="6.40,1.60 89.60,1.60"/>
    </edge>
    <edge id="J5-J2" from="J5" to="J2" priority="1">
        <lane id="J5-J2_0" index="0" speed="8.33" length="79.20" shape="95.20,10.40 95.20,89.60"/>
        <lane id="J5-J2_1" index="1" speed="8.33" length="79.20" shape="98.40,10.40 98.40,89.60"/>
    </edge>
    <edge id="J5-J4" from="J5" to="J4" priority="1">
        <lane id="J5-J4_0" index="0" speed="8.33" length="83.20" shape="89.60,-4.80 6.40,-4.80"/>
        <lane id="J5-J4_1" index="1" speed="8.33" length="83.20" shape="89.60,-1.60 6.40,-1.60"/>
    </edge>
    <edge id="J5-J6" from="J5" to="J6" priority="1">
        <lane id="J5-J6_0" index="0" speed="8.33" length="83.20" shape="110.40,4.80 193.60,4.80"/>
        <lane id="J5-J6_1" index="1" speed="8.33" length="83.20" shape="110.40,1.60 193.60,1.60"/>
    </edge>
    <edge id="J6-J3" from="J6" to="J3" priority="1">
        <lane id="J6-J3_0" index="0" speed="8.33" length="87.20" shape="195.20,6.40 195.20,93.60"/>
        <lane id="J6-J3_1" index="1" speed="8.33" length="87.20" shape="198.40,6.40 198.40,93.60"/>
    </edge>
    <edge id="J6-J5" from="J6" to="J5" priority="1">
        <lane id="J6-J5_0" index="0" speed="8.33" length="83.20" shape="193.60,-4.80 110.40,-4.80"/>
        <lane id="J6-J5_1" index="1" speed="8.33" length="83.20" shape="193.60,-1.60 110.40,-1.60"/>
    </edge>

    <tlLogic id="J1" type="static" programID="0" offset="0">
        <phase duration="90" state="GGGG"/>
    </tlLogic>
    <tlLogic id="J2" type="static" programID="0" offset="0">
        <phase duration="42" state="rrrrGGGgGGgg"/>
        <phase duration="3"  state="rrrrGyyyyyyy"/>
        <phase duration="42" state="GGGgGrrrrrrr"/>
        <phase duration="3"  state="yyyyGrrrrrrr"/>
    </tlLogic>
    <tlLogic id="J3" type="static" programID="0" offset="0">
        <phase duration="90" state="GGGG"/>
    </tlLogic>
    <tlLogic id="J4" type="static" programID="0" offset="0">
        <phase duration="90" state="GGGG"/>
    </tlLogic>
    <tlLogic id="J5" type="static" programID="0" offset="0">
        <phase duration="42" state="GGggrrrrGGGg"/>
        <phase duration="3"  state="yyyyrrrrGyyy"/>
        <phase duration="42" state="rrrrGGGgGrrr"/>
        <phase duration="3"  state="rrrryyyyGrrr"/>
    </tlLogic>
    <tlLogic id="J6" type="static" programID="0" offset="0">
        <phase duration="90" state="GGGG"/>
    </tlLogic>

    <junction id="J1" type="traffic_light" x="0.00" y="100.00" incLanes="J4-J1_0 J4-J1_1 J2-J1_0 J2-J1_1" intLanes=":J1_0_0 :J1_0_1 :J1_2_0 :J1_2_1" shape="-6.40,93.60 6.40,93.60 6.40,106.40 2.49,106.04 -0.71,104.98 -3.20,103.20 -4.98,100.71 -6.04,97.51">
        <request index="0" response="0000" foes="0000" cont="0"/>
        <request index="1" response="0000" foes="0000" cont="0"/>
        <request index="2" response="0000" foes="0000" cont="0"/>
        <request index="3" response="0000" foes="0000" cont="0"/>
    </junction>
    <junction id="J2" type="traffic_light" x="100.00" y="100.00" incLanes="J5-J2_0 J5-J2_1 J3-J2_0 J3-J2_1 J1-J2_0 J1-J2_1" intLanes=":J2_0_0 :J2_0_1 :J2_2_0 :J2_12_0 :J2_4_0 :J2_5_0 :J2_5_1 :J2_13_0 :J2_8_0 :J2_8_1 :J2_14_0 :J2_15_0" shape="93.60,89.60 106.40,89.60 106.84,91.82 107.40,92.60 108.18,93.16 109.18,93.49 110.40,93.60 110.40,106.40 89.60,106.40 89.60,93.60 91.82,93.16 92.60,92.60 93.16,91.82 93.49,90.82">
        <request index="0"  response="000001100000" foes="100001100000" cont="0"/>
        <request index="1"  response="000001100000" foes="100001100000" cont="0"/>
        <request index="2"  response="011101100000" foes="011111100000" cont="0"/>
        <request index="3"  response="010000000000" foes="010000000000" cont="1"/>
        <request index="4"  response="000000000000" foes="000000000000" cont="0"/>
        <request index="5"  response="000000000000" foes="110000000111" cont="0"/>
        <request index="6"  response="000000000000" foes="110000000111" cont="0"/>
        <request index="7"  response="001100000100" foes="001100000100" cont="1"/>
        <request index="8"  response="000000000000" foes="000010000100" cont="0"/>
        <request index="9"  response="000000000000" foes="000010000100" cont="0"/>
        <request index="10" response="000001100000" foes="000001101100" cont="1"/>
        <request index="11" response="000001100011" foes="000001100011" cont="1"/>
    </junction>
    <junction id="J3" type="traffic_light" x="200.00" y="100.00" incLanes="J6-J3_0 J6-J3_1 J2-J3_0 J2-J3_1" intLanes=":J3_0_0 :J3_0_1 :J3_2_0 :J3_2_1" shape="193.60,93.60 206.40,93.60 206.04,97.51 204.98,100.71 203.20,103.20 200.71,104.98 197.51,106.04 193.60,106.40">
        <request index="0" response="0000" foes="0000" cont="0"/>
        <request index="1" response="0000" foes="0000" cont="0"/>
        <request index="2" response="0000" foes="0000" cont="0"/>
        <request index="3" response="0000" foes="0000" cont="0"/>
    </junction>
    <junction id="J4" type="traffic_light" x="0.00" y="-0.00" incLanes="J5-J4_0 J5-J4_1 J1-J4_0 J1-J4_1" intLanes=":J4_0_0 :J4_0_1 :J4_2_0 :J4_2_1" shape="6.40,-6.40 6.40,6.40 -6.40,6.40 -6.04,2.49 -4.98,-0.71 -3.20,-3.20 -0.71,-4.98 2.49,-6.04">
        <request index="0" response="0000" foes="0000" cont="0"/>
        <request index="1" response="0000" foes="0000" cont="0"/>
        <request index="2" response="0000" foes="0000" cont="0"/>
        <request index="3" response="0000" foes="0000" cont="0"/>
    </junction>
    <junction id="J5" type="traffic_light" x="100.00" y="-0.00" incLanes="J6-J5_0 J6-J5_1 J2-J5_0 J2-J5_1 J4-J5_0 J4-J5_1" intLanes=":J5_0_0 :J5_0_1 :J5_12_0 :J5_13_0 :J5_4_0 :J5_4_1 :J5_6_0 :J5_14_0 :J5_8_0 :J5_9_0 :J5_9_1 :J5_15_0" shape="110.40,-6.40 110.40,6.40 108.18,6.84 107.40,7.40 106.84,8.18 106.51,9.18 106.40,10.40 93.60,10.40 93.16,8.18 92.60,7.40 91.82,6.84 90.82,6.51 89.60,6.40 89.60,-6.40">
        <request index="0"  response="000000000000" foes="100001000000" cont="0"/>
        <request index="1"  response="000000000000" foes="100001000000" cont="0"/>
        <request index="2"  response="011000000000" foes="011011000000" cont="1"/>
        <request index="3"  response="011000110000" foes="011000110000" cont="1"/>
        <request index="4"  response="011000000000" foes="011000001000" cont="0"/>
        <request index="5"  response="011000000000" foes="011000001000" cont="0"/>
        <request index="6"  response="011000000111" foes="111000000111" cont="0"/>
        <request index="7"  response="000000000100" foes="000000000100" cont="1"/>
        <request index="8"  response="000000000000" foes="000000000000" cont="0"/>
        <request index="9"  response="000000000000" foes="000001111100" cont="0"/>
        <request index="10" response="000000000000" foes="000001111100" cont="0"/>
        <request index="11" response="000001000011" foes="000001000011" cont="1"/>
    </junction>
    <junction id="J6" type="traffic_light" x="200.00" y="-0.00" incLanes="J3-J6_0 J3-J6_1 J5-J6_0 J5-J6_1" intLanes=":J6_0_0 :J6_0_1 :J6_2_0 :J6_2_1" shape="206.40,6.40 193.60,6.40 193.60,-6.40 197.51,-6.04 200.71,-4.98 203.20,-3.20 204.98,-0.71 206.04,2.49">
        <request index="0" response="0000" foes="0000" cont="0"/>
        <request index="1" response="0000" foes="0000" cont="0"/>
        <request index="2" response="0000" foes="0000" cont="0"/>
        <request index="3" response="0000" foes="0000" cont="0"/>
    </junction>

    <junction id=":J2_12_0" type="internal" x="100.00" y="91.20" incLanes=":J2_3_0 J1-J2_1 J3-J2_0" intLanes=":J2_4_0 :J2_10_0"/>
    <junction id=":J2_13_0" type="internal" x="109.20" y="99.20" incLanes=":J2_7_0 J1-J2_0 J1-J2_1 J5-J2_1" intLanes=":J2_2_0 :J2_8_0 :J2_8_1"/>
    <junction id=":J2_14_0" type="internal" x="94.56" y="100.89" incLanes=":J2_10_0 J3-J2_0 J3-J2_1" intLanes=":J2_2_0 :J2_3_0 :J2_4_0 :J2_5_0 :J2_5_1"/>
    <junction id=":J2_15_0" type="internal" x="90.80" y="100.80" incLanes=":J2_11_0 J3-J2_0 J3-J2_1 J5-J2_0 J5-J2_1" intLanes=":J2_0_0 :J2_0_1 :J2_5_0 :J2_5_1"/>
    <junction id=":J5_12_0" type="internal" x="105.44" y="-0.89" incLanes=":J5_2_0 J4-J5_0 J4-J5_1" intLanes=":J5_6_0 :J5_7_0 :J5_8_0 :J5_9_0 :J5_9_1"/>
    <junction id=":J5_13_0" type="internal" x="109.20" y="-0.80" incLanes=":J5_3_0 J2-J5_0 J2-J5_1 J4-J5_0 J4-J5_1" intLanes=":J5_4_0 :J5_4_1 :J5_9_0 :J5_9_1"/>
    <junction id=":J5_14_0" type="internal" x="100.00" y="8.80" incLanes=":J5_7_0 J4-J5_0 J6-J5_1" intLanes=":J5_2_0 :J5_8_0"/>
    <junction id=":J5_15_0" type="internal" x="90.80" y="0.80" incLanes=":J5_11_0 J2-J5_1 J6-J5_0 J6-J5_1" intLanes=":J5_0_0 :J5_0_1 :J5_6_0"/>

    <connection from="J1-J2" to="J2-J3" fromLane="0" toLane="0" via=":J2_8_0" tl="J2" linkIndex="8" dir="s" state="O"/>
    <connection from="J1-J2" to="J2-J3" fromLane="1" toLane="1" via=":J2_8_1" tl="J2" linkIndex="9" dir="s" state="O"/>
    <connection from="J1-J2" to="J2-J5" fromLane="1" toLane="1" via=":J2_10_0" tl="J2" linkIndex="10" dir="r" state="o"/>
    <connection from="J1-J2" to="J2-J1" fromLane="1" toLane="1" via=":J2_11_0" tl="J2" linkIndex="11" dir="T" state="o"/>
    <connection from="J1-J4" to="J4-J5" fromLane="0" toLane="0" via=":J4_2_0" tl="J4" linkIndex="2" dir="l" state="O"/>
    <connection from="J1-J4" to="J4-J5" fromLane="1" toLane="1" via=":J4_2_1" tl="J4" linkIndex="3" dir="l" state="O"/>
    <connection from="J2-J1" to="J1-J4" fromLane="0" toLane="0" via=":J1_2_0" tl="J1" linkIndex="2" dir="l" state="O"/>
    <connection from="J2-J1" to="J1-J4" fromLane="1" toLane="1" via=":J1_2_1" tl="J1" linkIndex="3" dir="l" state="O"/>
    <connection from="J2-J3" to="J3-J6" fromLane="0" toLane="0" via=":J3_2_0" tl="J3" linkIndex="2" dir="r" state="O"/>
    <connection from="J2-J3" to="J3-J6" fromLane="1" toLane="1" via=":J3_2_1" tl="J3" linkIndex="3" dir="r" state="O"/>
    <connection from="J2-J5" to="J5-J6" fromLane="0" toLane="0" via=":J5_4_0" tl="J5" linkIndex="4" dir="l" state="o"/>
    <connection from="J2-J5" to="J5-J6" fromLane="1" toLane="1" via=":J5_4_1" tl="J5" linkIndex="5" dir="l" state="o"/>
    <connection from="J2-J5" to="J5-J4" fromLane="1" toLane="1" via=":J5_6_0" tl="J5" linkIndex="6" dir="r" state="o"/>
    <connection from="J2-J5" to="J5-J2" fromLane="1" toLane="1" via=":J5_7_0" tl="J5" linkIndex="7" dir="T" state="o"/>
    <connection from="J3-J2" to="J2-J5" fromLane="0" toLane="0" via=":J2_4_0" tl="J2" linkIndex="4" dir="l" state="O"/>
    <connection from="J3-J2" to="J2-J1" fromLane="0" toLane="0" via=":J2_5_0" tl="J2" linkIndex="5" dir="s" state="O"/>
    <connection from="J3-J2" to="J2-J1" fromLane="1" toLane="1" via=":J2_5_1" tl="J2" linkIndex="6" dir="s" state="O"/>
    <connection from="J3-J2" to="J2-J3" fromLane="1" toLane="1" via=":J2_7_0" tl="J2" linkIndex="7" dir="T" state="o"/>
    <connection from="J3-J6" to="J6-J5" fromLane="0" toLane="0" via=":J6_0_0" tl="J6" linkIndex="0" dir="r" state="O"/>
    <connection from="J3-J6" to="J6-J5" fromLane="1" toLane="1" via=":J6_0_1" tl="J6" linkIndex="1" dir="r" state="O"/>
    <connection from="J4-J1" to="J1-J2" fromLane="0" toLane="0" via=":J1_0_0" tl="J1" linkIndex="0" dir="r" state="O"/>
    <connection from="J4-J1" to="J1-J2" fromLane="1" toLane="1" via=":J1_0_1" tl="J1" linkIndex="1" dir="r" state="O"/>
    <connection from="J4-J5" to="J5-J2" fromLane="0" toLane="0" via=":J5_8_0" tl="J5" linkIndex="8" dir="l" state="O"/>
    <connection from="J4-J5" to="J5-J6" fromLane="0" toLane="0" via=":J5_9_0" tl="J5" linkIndex="9" dir="s" state="O"/>
    <connection from="J4-J5" to="J5-J6" fromLane="1" toLane="1" via=":J5_9_1" tl="J5" linkIndex="10" dir="s" state="O"/>
    <connection from="J4-J5" to="J5-J4" fromLane="1" toLane="1" via=":J5_11_0" tl="J5" linkIndex="11" dir="T" state="o"/>
    <connection from="J5-J2" to="J2-J1" fromLane="0" toLane="0" via=":J2_0_0" tl="J2" linkIndex="0" dir="l" state="o"/>
    <connection from="J5-J2" to="J2-J1" fromLane="1" toLane="1" via=":J2_0_1" tl="J2" linkIndex="1" dir="l" state="o"/>
    <connection from="J5-J2" to="J2-J3" fromLane="1" toLane="1" via=":J2_2_0" tl="J2" linkIndex="2" dir="r" state="o"/>
    <connection from="J5-J2" to="J2-J5" fromLane="1" toLane="1" via=":J2_3_0" tl="J2" linkIndex="3" dir="T" state="o"/>
    <connection from="J5-J4" to="J4-J1" fromLane="0" toLane="0" via=":J4_0_0" tl="J4" linkIndex="0" dir="r" state="O"/>
    <connection from="J5-J4" to="J4-J1" fromLane="1" toLane="1" via=":J4_0_1" tl="J4" linkIndex="1" dir="r" state="O"/>
    <connection from="J5-J6" to="J6-J3" fromLane="0" toLane="0" via=":J6_2_0" tl="J6" linkIndex="2" dir="l" state="O"/>
    <connection from="J5-J6" to="J6-J3" fromLane="1" toLane="1" via=":J6_2_1" tl="J6" linkIndex="3" dir="l" state="O"/>
    <connection from="J6-J3" to="J3-J2" fromLane="0" toLane="0" via=":J3_0_0" tl="J3" linkIndex="0" dir="l" state="O"/>
    <connection from="J6-J3" to="J3-J2" fromLane="1" toLane="1" via=":J3_0_1" tl="J3" linkIndex="1" dir="l" state="O"/>
    <connection from="J6-J5" to="J5-J4" fromLane="0" toLane="0" via=":J5_0_0" tl="J5" linkIndex="0" dir="s" state="O"/>
    <connection from="J6-J5" to="J5-J4" fromLane="1" toLane="1" via=":J5_0_1" tl="J5" linkIndex="1" dir="s" state="O"/>
    <connection from="J6-J5" to="J5-J2" fromLane="1" toLane="1" via=":J5_2_0" tl="J5" linkIndex="2" dir="r" state="o"/>
    <connection from="J6-J5" to="J5-J6" fromLane="1" toLane="1" via=":J5_3_0" tl="J5" linkIndex="3" dir="T" state="o"/>

    <connection from=":J1_0" to="J1-J2" fromLane="0" toLane="0" dir="r" state="M"/>
    <connection from=":J1_0" to="J1-J2" fromLane="1" toLane="1" dir="r" state="M"/>
    <connection from=":J1_2" to="J1-J4" fromLane="0" toLane="0" dir="l" state="M"/>
    <connection from=":J1_2" to="J1-J4" fromLane="1" toLane="1" dir="l" state="M"/>
    <connection from=":J2_0" to="J2-J1" fromLane="0" toLane="0" dir="l" state="M"/>
    <connection from=":J2_0" to="J2-J1" fromLane="1" toLane="1" dir="l" state="M"/>
    <connection from=":J2_2" to="J2-J3" fromLane="0" toLane="1" dir="r" state="M"/>
    <connection from=":J2_3" to="J2-J5" fromLane="0" toLane="1" via=":J2_12_0" dir="T" state="m"/>
    <connection from=":J2_12" to="J2-J5" fromLane="0" toLane="1" dir="T" state="M"/>
    <connection from=":J2_4" to="J2-J5" fromLane="0" toLane="0" dir="l" state="M"/>
    <connection from=":J2_5" to="J2-J1" fromLane="0" toLane="0" dir="s" state="M"/>
    <connection from=":J2_5" to="J2-J1" fromLane="1" toLane="1" dir="s" state="M"/>
    <connection from=":J2_7" to="J2-J3" fromLane="0" toLane="1" via=":J2_13_0" dir="T" state="m"/>
    <connection from=":J2_13" to="J2-J3" fromLane="0" toLane="1" dir="T" state="M"/>
    <connection from=":J2_8" to="J2-J3" fromLane="0" toLane="0" dir="s" state="M"/>
    <connection from=":J2_8" to="J2-J3" fromLane="1" toLane="1" dir="s" state="M"/>
    <connection from=":J2_10" to="J2-J5" fromLane="0" toLane="1" via=":J2_14_0" dir="r" state="m"/>
    <connection from=":J2_14" to="J2-J5" fromLane="0" toLane="1" dir="r" state="M"/>
    <connection from=":J2_11" to="J2-J1" fromLane="0" toLane="1" via=":J2_15_0" dir="T" state="m"/>
    <connection from=":J2_15" to="J2-J1" fromLane="0" toLane="1" dir="T" state="M"/>
    <connection from=":J3_0" to="J3-J2" fromLane="0" toLane="0" dir="l" state="M"/>
    <connection from=":J3_0" to="J3-J2" fromLane="1" toLane="1" dir="l" state="M"/>
    <connection from=":J3_2" to="J3-J6" fromLane="0" toLane="0" dir="r" state="M"/>
    <connection from=":J3_2" to="J3-J6" fromLane="1" toLane="1" dir="r" state="M"/>
    <connection from=":J4_0" to="J4-J1" fromLane="0" toLane="0" dir="r" state="M"/>
    <connection from=":J4_0" to="J4-J1" fromLane="1" toLane="1" dir="r" state="M"/>
    <connection from=":J4_2" to="J4-J5" fromLane="0" toLane="0" dir="l" state="M"/>
    <connection from=":J4_2" to="J4-J5" fromLane="1" toLane="1" dir="l" state="M"/>
    <connection from=":J5_0" to="J5-J4" fromLane="0" toLane="0" dir="s" state="M"/>
    <connection from=":J5_0" to="J5-J4" fromLane="1" toLane="1" dir="s" state="M"/>
    <connection from=":J5_2" to="J5-J2" fromLane="0" toLane="1" via=":J5_12_0" dir="r" state="m"/>
    <connection from=":J5_12" to="J5-J2" fromLane="0" toLane="1" dir="r" state="M"/>
    <connection from=":J5_3" to="J5-J6" fromLane="0" toLane="1" via=":J5_13_0" dir="T" state="m"/>
    <connection from=":J5_13" to="J5-J6" fromLane="0" toLane="1" dir="T" state="M"/>
    <connection from=":J5_4" to="J5-J6" fromLane="0" toLane="0" dir="l" state="M"/>
    <connection from=":J5_4" to="J5-J6" fromLane="1" toLane="1" dir="l" state="M"/>
    <connection from=":J5_6" to="J5-J4" fromLane="0" toLane="1" dir="r" state="M"/>
    <connection from=":J5_7" to="J5-J2" fromLane="0" toLane="1" via=":J5_14_0" dir="T" state="m"/>
    <connection from=":J5_14" to="J5-J2" fromLane="0" toLane="1" dir="T" state="M"/>
    <connection from=":J5_8" to="J5-J2" fromLane="0" toLane="0" dir="l" state="M"/>
    <connection from=":J5_9" to="J5-J6" fromLane="0" toLane="0" dir="s" state="M"/>
    <connection from=":J5_9" to="J5-J6" fromLane="1" toLane="1" dir="s" state="M"/>
    <connection from=":J5_11" to="J5-J4" fromLane="0" toLane="1" via=":J5_15_0" dir="T" state="m"/>
    <connection from=":J5_15" to="J5-J4" fromLane="0" toLane="1" dir="T" state="M"/>
    <connection from=":J6_0" to="J6-J5" fromLane="0" toLane="0" dir="r" state="M"/>
    <connection from=":J6_0" to="J6-J5" fromLane="1" toLane="1" dir="r" state="M"/>
    <connection from=":J6_2" to="J6-J3" fromLane="0" toLane="0" dir="l" state="M"/>
    <connection from=":J6_2" to="J6-J3" fromLane="1" toLane="1" dir="l" state="M"/>

</net>