<?xml version="1.0" encoding="UTF-8"?>
<configuration xmlns:xsi="http://www.w3.org/2001/XMLSchema-instance" xsi:noNamespaceSchemaLocation="http://sumo.dlr.de/xsd/sumoConfiguration.xsd">
	<input>
		<net-file value="city.net.xml"/>
		<route-files value="city.rou.xml"/>
		<additional-files value="city.add.xml"/>
	</input>
	<time>
		<begin value="0"/>
		<end value="-1"/>
	</time>
	<report>
		<no-step-log value="true"/>
	</report>
</configuration>