<?xml version="1.0" encoding="UTF-8"?>
<configuration xmlns:xsi="http://www.w3.org/2001/XMLSchema-instance" xsi:noNamespaceSchemaLocation="http://sumo.dlr.de/xsd/sumoConfiguration.xsd">
	<input>
		<net-file value="city.net.xml"/>
		<route-files value="city.rou.xml"/>
		<additional-files value="city.add.xml"/>
	</input>
	<time>
		<begin value="0"/>
		<end value="-1"/>
		<step-length value="0.1"/>
	</time>
	<processing>
		<ignore-route-errors value="true"/>
	</processing>
	<routing>
		<device.rerouting.adaptation-steps value="18"/>
		<device.rerouting.adaptation-interval value="10"/>
		<device.rerouting.with-taz value="false"/>
	</routing>
	<report>
		<no-step-log value="true"/>
		<verbose value="true"/>
		<duration-log.statistics value="true"/>
	</report>
	<gui_only>
		<start value="true"/>
		<quit-on-end value="false"/>
		<delay value="350"/>
	</gui_only>
	<traci_server>
		<remote-port value="8873"/>
	</traci_server>
</configuration>